omf/scratch/voltdumpDebug/voltdump.csv
# voltdump.csv run at 2000-01-01 00:00:00 PST on 6 nodes
node_name,voltA_real,voltA_imag,voltB_real,voltB_imag,voltC_real,voltC_imag
n650,2401.777100,0.000000,-1200.888600,-2080.000000,-1200.888600,2080.000000
n630,2416.787977,0.000007,-1208.394032,-2092.999804,-1208.394154,2093.000000
tn_1,120.747527,-0.013229,120.747658,-0.013179,0.000000,0.000000
tn_2,-60.385223,-104.563812,-60.385245,-104.563951,0.000000,0.000000
tm_1,120.299449,-0.064269,120.346642,-0.082654,0.000000,0.000000
tm_2,-60.205386,-104.150246,-60.244904,-104.181923,0.000000,0.000000
